*Heading
** Job name: Job-Rec Model name: Model-Rect
** Generated by: Abaqus/CAE 2017
*Preprint, echo=NO, model=NO, history=NO, contact=NO
**
** PARTS
**
*Part, name=Part-1
*Node
      1,           0.,           0.
      2,  0.100000001,           0.
      3,  0.200000003,           0.
      4,  0.300000012,           0.
      5,  0.400000006,           0.
      6,          0.5,           0.
      7,  0.600000024,           0.
      8,  0.699999988,           0.
      9,  0.800000012,           0.
     10,  0.899999976,           0.
     11,           1.,           0.
     12,   1.10000002,           0.
     13,   1.20000005,           0.
     14,   1.29999995,           0.
     15,   1.39999998,           0.
     16,          1.5,           0.
     17,   1.60000002,           0.
     18,   1.70000005,           0.
     19,   1.79999995,           0.
     20,   1.89999998,           0.
** ... 10181 like lines cut
*Element, type=CPS4R
    1,     1,     2,   103,   102
    2,     2,     3,   104,   103
    3,     3,     4,   105,   104
    4,     4,     5,   106,   105
    5,     5,     6,   107,   106
    6,     6,     7,   108,   107
    7,     7,     8,   109,   108
    8,     8,     9,   110,   109
    9,     9,    10,   111,   110
   10,    10,    11,   112,   111
   11,    11,    12,   113,   112
   12,    12,    13,   114,   113
   13,    13,    14,   115,   114
   14,    14,    15,   116,   115
   15,    15,    16,   117,   116
   16,    16,    17,   118,   117
   17,    17,    18,   119,   118
   18,    18,    19,   120,   119
   19,    19,    20,   121,   120
   20,    20,    21,   122,   121
** ... 9980 like lines cut
*Nset, nset=Set-1, generate
     1,  10201,      1
*Elset, elset=Set-1, generate
     1,  10000,      1
** Section: Section-2
*Solid Section, elset=Set-1, material=Material-1
1.,
*End Part
**  
**
** ASSEMBLY
**
*Assembly, name=Assembly
**  
*Instance, name=Part-1-1, part=Part-1
*End Instance
**  
*Nset, nset=Set-1, instance=Part-1-1, generate
     1,  10101,    101
*Elset, elset=Set-1, instance=Part-1-1, generate
    1,  9901,   100
*Nset, nset=Set-2, instance=Part-1-1, generate
   1,  101,    1
*Elset, elset=Set-2, instance=Part-1-1, generate
   1,  100,    1
*Elset, elset=_Surf-1_S2, internal, instance=Part-1-1, generate
   100,  10000,    100
*Surface, type=ELEMENT, name=Surf-1
_Surf-1_S2, S2
*End Assembly
** 
** MATERIALS
** 
*Material, name=Material-1
*Density
 2.7e-09,
*Elastic
70., 0.3
** 
** BOUNDARY CONDITIONS
** 
** Name: BC-1 Type: Symmetry/Antisymmetry/Encastre
*Boundary
Set-1, XSYMM
** Name: BC-2 Type: Symmetry/Antisymmetry/Encastre
*Boundary
Set-2, YSYMM
** ----------------------------------------------------------------
** 
** STEP: Step-1
** 
*Step, name=Step-1, nlgeom=YES
*Static
1., 1., 1e-05, 1.
** 
** LOADS
** 
** Name: Load-1   Type: Pressure Using Field: AnalyticalField-1
*Dload
Part-1-1.100, P2, -0.999969
Part-1-1.200, P2, -0.999722
Part-1-1.300, P2, -0.999229
Part-1-1.400, P2, -0.998489
Part-1-1.500, P2, -0.997503
Part-1-1.600, P2, -0.996271
Part-1-1.700, P2, -0.994792
Part-1-1.800, P2, -0.993069
Part-1-1.900, P2, -0.9911
Part-1-1.1000, P2, -0.988887
Part-1-1.1100, P2, -0.98643
Part-1-1.1200, P2, -0.98373
Part-1-1.1300, P2, -0.980786
Part-1-1.1400, P2, -0.977601
Part-1-1.1500, P2, -0.974175
Part-1-1.1600, P2, -0.970508
Part-1-1.1700, P2, -0.966602
Part-1-1.1800, P2, -0.962457
Part-1-1.1900, P2, -0.958075
Part-1-1.2000, P2, -0.953457
** ... 80 like lines cut
** 
** OUTPUT REQUESTS
** 
*Restart, write, frequency=0
** 
** FIELD OUTPUT: F-Output-1
** 
*Output, field, variable=PRESELECT
** 
** HISTORY OUTPUT: H-Output-1
** 
*Output, history, variable=PRESELECT
*End Step
