*Heading
** Job name: Job-CH-Tension Model name: Model-CH
** Generated by: Abaqus/CAE 2017
*Preprint, echo=NO, model=NO, history=NO, contact=NO
**
** PARTS
**
*Part, name=Part-1
*Node
      1,   9.80246925,           0.
      2,   9.60493851,           0.
      3,   9.40740776,           0.
      4,   9.11111069,           0.
      5,   8.91357994,           0.
      6,   8.71604919,           0.
      7,   8.51851845,           0.
      8,    8.3209877,           0.
      9,   8.12345695,           0.
     10,   7.92592573,           0.
     11,   7.72839499,           0.
     12,   7.43209887,           0.
     13,   7.23456812,           0.
     14,    7.0370369,           0.
     15,   6.83950615,           0.
     16,    6.6419754,           0.
     17,   6.44444466,           0.
     18,   6.24691343,           0.
     19,   5.95061731,           0.
     20,   5.75308657,           0.
** ... 12304 like lines cut
*Element, type=CPS4R
    1,   174,  2483,   222,  2911
    2,  2923,  2911,   222,  2953
    3,  2959,   221,  2893, 10046
    4,  2892,   219,  2951, 10046
    5,   219,  2891,  2945,  2987
    6,  3078,  2962,  3010,   256
    7,  2963,  2962,   217,  2885
    8,  3083,   216,  3084,   254
    9,  3025,  2964,  2932, 10248
   10,   214,  2889,  2944,  2974
   11,   213,  2888,  2950,  2986
   12,   212,  2887,  2960,  2993
   13,   211,  2886,  2952,  2994
   14,  3079,  3111,   209,  9830
   15,  2965,  3011,  3079,  9830
   16,  9995,  3216,  3147,  3209
   17,  3024,  3093,  2931,   243
   18,   205,  2897,  2941,  2973
   19,   204,  2896,  2949,  2983
   20,   203,  2882,  2961,  2990
** ... 12107 like lines cut
*Nset, nset=Set-1, generate
     1,  12324,      1
*Elset, elset=Set-1, generate
     1,  12127,      1
** Section: Section-2
*Solid Section, elset=Set-1, material=Material-1
1.,
*End Part
**  
**
** ASSEMBLY
**
*Assembly, name=Assembly
**  
*Instance, name=Part-1-1, part=Part-1
*End Instance
**  
*Nset, nset=Set-1, instance=Part-1-1
  135,  136,  137,  138,  139,  140,  141,  142,  143,  144,  145,  146,  147,  148,  149,  150
  151,  152,  153,  154,  155,  156,  157,  158,  159,  160,  161,  162,  163,  164,  165,  166
  167,  168,  169,  170,  171,  172,  173, 2440, 2441, 2442, 2443, 2444, 2445, 2446, 2447, 2448
 2449, 2450, 2451, 2452, 2453, 2454, 2455, 2456, 2457, 2458, 2459, 2460, 2461, 2462, 2463, 2464
 2465, 2466, 2467, 2468, 2469, 2470, 2471, 2472, 2473, 2474, 2475, 2476, 2477, 2478, 2479, 2480
 2481,
*Elset, elset=Set-1, instance=Part-1-1
  121, 1235, 1240, 1249, 1250, 1251, 1259, 1260, 1261, 1262, 1263, 1268, 2654, 2770, 2805, 2844
 2883, 3152, 3233, 3269, 3303, 3343, 3497, 3532, 3569, 3610, 3650, 3690, 3731, 3768, 3807, 3887
 3925, 3962, 4003, 4108, 4110, 4111, 4112, 4113, 4114, 4115, 4117, 4118, 4119, 4120, 4121, 4122
 4123, 4124, 4125, 4126, 4128, 4130, 4131, 4132, 4133, 4134, 4135, 4136, 4137, 4138, 4139, 4141
 4142, 4143, 4144, 4301, 4302, 4303, 4305, 4306, 4307, 4308, 4309, 4312, 4318, 4355, 4358, 4393
*Nset, nset=Set-2, instance=Part-1-1
    1,    2,    3,    4,    5,    6,    7,    8,    9,   10,   11,   12,   13,   14,   15,   16
   17,   18,   19,   20,   21,   22,   23,   24,   25,   26,   27,   28,   29,   30,   31,   32
   33,   34,   35,   36,   37,   38,   39, 2293, 2294, 2295, 2296, 2297, 2298, 2299, 2300, 2301
 2302, 2303, 2304, 2305, 2306, 2307, 2308, 2309, 2310, 2311, 2312, 2313, 2314, 2315, 2316, 2317
 2318, 2319, 2320, 2321, 2322, 2323, 2324, 2325, 2326, 2327, 2328, 2329, 2330, 2331, 2332, 2333
 2334, 2335
*Elset, elset=Set-2, instance=Part-1-1
  159,  161,  162,  163,  165,  166,  167,  168,  169,  171,  173,  175,  177,  179,  180,  181
  183,  184,  185,  187,  188,  189,  191,  193, 1331, 1335, 1347, 1350, 1363, 4004, 4005, 4006
 4007, 4008, 4009, 4010, 4011, 4012, 4013, 4014, 4015, 4016, 4017, 4018, 4019, 4021, 4027, 4156
 4163, 4173, 4181, 4183, 4184, 4185, 4186, 4187, 4188, 4189, 4190, 4191, 4192, 4193, 4194, 4195
 4196, 4197, 4198, 4199, 4200, 4201, 4202, 4203, 4204, 4205, 4206, 4207, 4208, 4209, 4210, 4211
 4229,
*Elset, elset=_Surf-1_S1, internal, instance=Part-1-1
   36,   38,   40,  160,  196,  238,  280,  321,  363,  402,  442,  481,  520,  557,  593,  627
  662,  695,  728,  759,  790,  817,  845,  873,  899,  925,  949,  971,  993, 1014, 1035, 1072
 1104, 1135, 1162, 1183, 1193, 1201, 1209, 1216, 1222, 1227, 4231, 4233, 4235, 4236, 4237, 4238
 4239, 4240, 4241, 4243, 4245, 4246, 4247, 4248, 4250, 4251, 4252, 4253, 4254, 4255, 4257, 4260
 4262, 4263, 4264, 4266, 4269, 4271, 4273, 4286, 4288, 4290, 4291, 4292, 4295, 4298, 4322, 4328
 4329, 4428
*Elset, elset=_Surf-1_S4, internal, instance=Part-1-1
 159,
*Elset, elset=_Surf-1_S3, internal, instance=Part-1-1
 1054, 1088, 1120, 1149, 1173, 1231, 4035, 4036, 4037, 4038, 4039, 4040, 4324, 4414, 4415, 4417
 4419,
*Surface, type=ELEMENT, name=Surf-1
_Surf-1_S1, S1
_Surf-1_S4, S4
_Surf-1_S3, S3
*End Assembly
** 
** MATERIALS
** 
*Material, name=Material-1
*Density
 2.7e-09,
*Elastic
70., 0.3
** 
** BOUNDARY CONDITIONS
** 
** Name: BC-1 Type: Symmetry/Antisymmetry/Encastre
*Boundary
Set-1, XSYMM
** ----------------------------------------------------------------
** 
** STEP: Step-1
** 
*Step, name=Step-1, nlgeom=YES
*Static
1., 1., 1e-05, 1.
** 
** BOUNDARY CONDITIONS
** 
** Name: BC-2 Type: Symmetry/Antisymmetry/Encastre
*Boundary
Set-2, YSYMM
** 
** LOADS
** 
** Name: Load-1   Type: Pressure
*Dsload
Surf-1, P, -1.
** 
** OUTPUT REQUESTS
** 
*Restart, write, frequency=0
** 
** FIELD OUTPUT: F-Output-1
** 
*Output, field, variable=PRESELECT
** 
** HISTORY OUTPUT: H-Output-1
** 
*Output, history, variable=PRESELECT
*End Step
