*Heading
** Job name: Job-Plate-deflection Model name: Model-1
** Generated by: Abaqus/CAE 2017
*Preprint, echo=NO, model=NO, history=NO, contact=NO
**
** PARTS
**
*Part, name=Part-1
*Node
      1,          50.,          50.,           0.
      2,          49.,          50.,           0.
      3,          48.,          50.,           0.
      4,          47.,          50.,           0.
      5,          46.,          50.,           0.
      6,          45.,          50.,           0.
      7,          44.,          50.,           0.
      8,          43.,          50.,           0.
      9,          42.,          50.,           0.
     10,          41.,          50.,           0.
     11,          40.,          50.,           0.
     12,          39.,          50.,           0.
     13,          38.,          50.,           0.
     14,          37.,          50.,           0.
     15,          36.,          50.,           0.
     16,          35.,          50.,           0.
     17,          34.,          50.,           0.
     18,          33.,          50.,           0.
     19,          32.,          50.,           0.
     20,          31.,          50.,           0.
** ... 30381 like lines cut
*Element, type=S8R5
    1,     1,     2,   103,   102, 10202, 10203, 10204, 10205
    2,     2,     3,   104,   103, 10206, 10207, 10208, 10203
    3,     3,     4,   105,   104, 10209, 10210, 10211, 10207
    4,     4,     5,   106,   105, 10212, 10213, 10214, 10210
    5,     5,     6,   107,   106, 10215, 10216, 10217, 10213
    6,     6,     7,   108,   107, 10218, 10219, 10220, 10216
    7,     7,     8,   109,   108, 10221, 10222, 10223, 10219
    8,     8,     9,   110,   109, 10224, 10225, 10226, 10222
    9,     9,    10,   111,   110, 10227, 10228, 10229, 10225
   10,    10,    11,   112,   111, 10230, 10231, 10232, 10228
   11,    11,    12,   113,   112, 10233, 10234, 10235, 10231
   12,    12,    13,   114,   113, 10236, 10237, 10238, 10234
   13,    13,    14,   115,   114, 10239, 10240, 10241, 10237
   14,    14,    15,   116,   115, 10242, 10243, 10244, 10240
   15,    15,    16,   117,   116, 10245, 10246, 10247, 10243
   16,    16,    17,   118,   117, 10248, 10249, 10250, 10246
   17,    17,    18,   119,   118, 10251, 10252, 10253, 10249
   18,    18,    19,   120,   119, 10254, 10255, 10256, 10252
   19,    19,    20,   121,   120, 10257, 10258, 10259, 10255
   20,    20,    21,   122,   121, 10260, 10261, 10262, 10258
** ... 9980 like lines cut
*Nset, nset=Set-1, generate
     1,  30401,      1
*Elset, elset=Set-1, generate
     1,  10000,      1
** Section: Section-1
*Shell Section, elset=Set-1, material=Material-1
0.1, 3
*End Part
**  
**
** ASSEMBLY
**
*Assembly, name=Assembly
**  
*Instance, name=Part-1-1, part=Part-1
*End Instance
**  
*Nset, nset=Set-1, instance=Part-1-1
     1,     2,     3,     4,     5,     6,     7,     8,     9,    10,    11,    12,    13,    14,    15,    16
    17,    18,    19,    20,    21,    22,    23,    24,    25,    26,    27,    28,    29,    30,    31,    32
    33,    34,    35,    36,    37,    38,    39,    40,    41,    42,    43,    44,    45,    46,    47,    48
    49,    50,    51,    52,    53,    54,    55,    56,    57,    58,    59,    60,    61,    62,    63,    64
    65,    66,    67,    68,    69,    70,    71,    72,    73,    74,    75,    76,    77,    78,    79,    80
    81,    82,    83,    84,    85,    86,    87,    88,    89,    90,    91,    92,    93,    94,    95,    96
    97,    98,    99,   100,   101,   102,   202,   203,   303,   304,   404,   405,   505,   506,   606,   607
   707,   708,   808,   809,   909,   910,  1010,  1011,  1111,  1112,  1212,  1213,  1313,  1314,  1414,  1415
  1515,  1516,  1616,  1617,  1717,  1718,  1818,  1819,  1919,  1920,  2020,  2021,  2121,  2122,  2222,  2223
  2323,  2324,  2424,  2425,  2525,  2526,  2626,  2627,  2727,  2728,  2828,  2829,  2929,  2930,  3030,  3031
  3131,  3132,  3232,  3233,  3333,  3334,  3434,  3435,  3535,  3536,  3636,  3637,  3737,  3738,  3838,  3839
  3939,  3940,  4040,  4041,  4141,  4142,  4242,  4243,  4343,  4344,  4444,  4445,  4545,  4546,  4646,  4647
  4747,  4748,  4848,  4849,  4949,  4950,  5050,  5051,  5151,  5152,  5252,  5253,  5353,  5354,  5454,  5455
  5555,  5556,  5656,  5657,  5757,  5758,  5858,  5859,  5959,  5960,  6060,  6061,  6161,  6162,  6262,  6263
  6363,  6364,  6464,  6465,  6565,  6566,  6666,  6667,  6767,  6768,  6868,  6869,  6969,  6970,  7070,  7071
  7171,  7172,  7272,  7273,  7373,  7374,  7474,  7475,  7575,  7576,  7676,  7677,  7777,  7778,  7878,  7879
  7979,  7980,  8080,  8081,  8181,  8182,  8282,  8283,  8383,  8384,  8484,  8485,  8585,  8586,  8686,  8687
  8787,  8788,  8888,  8889,  8989,  8990,  9090,  9091,  9191,  9192,  9292,  9293,  9393,  9394,  9494,  9495
  9595,  9596,  9696,  9697,  9797,  9798,  9898,  9899,  9999, 10000, 10100, 10101, 10102, 10103, 10104, 10105
 10106, 10107, 10108, 10109, 10110, 10111, 10112, 10113, 10114, 10115, 10116, 10117, 10118, 10119, 10120, 10121
** ... 30 like lines cut
*Elset, elset=Set-1, instance=Part-1-1
     1,     2,     3,     4,     5,     6,     7,     8,     9,    10,    11,    12,    13,    14,    15,    16
    17,    18,    19,    20,    21,    22,    23,    24,    25,    26,    27,    28,    29,    30,    31,    32
    33,    34,    35,    36,    37,    38,    39,    40,    41,    42,    43,    44,    45,    46,    47,    48
    49,    50,    51,    52,    53,    54,    55,    56,    57,    58,    59,    60,    61,    62,    63,    64
    65,    66,    67,    68,    69,    70,    71,    72,    73,    74,    75,    76,    77,    78,    79,    80
    81,    82,    83,    84,    85,    86,    87,    88,    89,    90,    91,    92,    93,    94,    95,    96
    97,    98,    99,   100,   101,   200,   201,   300,   301,   400,   401,   500,   501,   600,   601,   700
   701,   800,   801,   900,   901,  1000,  1001,  1100,  1101,  1200,  1201,  1300,  1301,  1400,  1401,  1500
  1501,  1600,  1601,  1700,  1701,  1800,  1801,  1900,  1901,  2000,  2001,  2100,  2101,  2200,  2201,  2300
  2301,  2400,  2401,  2500,  2501,  2600,  2601,  2700,  2701,  2800,  2801,  2900,  2901,  3000,  3001,  3100
  3101,  3200,  3201,  3300,  3301,  3400,  3401,  3500,  3501,  3600,  3601,  3700,  3701,  3800,  3801,  3900
  3901,  4000,  4001,  4100,  4101,  4200,  4201,  4300,  4301,  4400,  4401,  4500,  4501,  4600,  4601,  4700
  4701,  4800,  4801,  4900,  4901,  5000,  5001,  5100,  5101,  5200,  5201,  5300,  5301,  5400,  5401,  5500
  5501,  5600,  5601,  5700,  5701,  5800,  5801,  5900,  5901,  6000,  6001,  6100,  6101,  6200,  6201,  6300
  6301,  6400,  6401,  6500,  6501,  6600,  6601,  6700,  6701,  6800,  6801,  6900,  6901,  7000,  7001,  7100
  7101,  7200,  7201,  7300,  7301,  7400,  7401,  7500,  7501,  7600,  7601,  7700,  7701,  7800,  7801,  7900
  7901,  8000,  8001,  8100,  8101,  8200,  8201,  8300,  8301,  8400,  8401,  8500,  8501,  8600,  8601,  8700
  8701,  8800,  8801,  8900,  8901,  9000,  9001,  9100,  9101,  9200,  9201,  9300,  9301,  9400,  9401,  9500
  9501,  9600,  9601,  9700,  9701,  9800,  9801,  9900,  9901,  9902,  9903,  9904,  9905,  9906,  9907,  9908
  9909,  9910,  9911,  9912,  9913,  9914,  9915,  9916,  9917,  9918,  9919,  9920,  9921,  9922,  9923,  9924
** ... 5 like lines cut
*Elset, elset=_Surf-1_SPOS, internal, instance=Part-1-1, generate
     1,  10000,      1
*Surface, type=ELEMENT, name=Surf-1
_Surf-1_SPOS, SPOS
*End Assembly
** 
** MATERIALS
** 
*Material, name=Material-1
*Density
 2.7e-06,
*Elastic
70., 0.3
** 
** BOUNDARY CONDITIONS
** 
** Name: BC-1 Type: Symmetry/Antisymmetry/Encastre
*Boundary
Set-1, ENCASTRE
** ----------------------------------------------------------------
** 
** STEP: Step-1
** 
*Step, name=Step-1, nlgeom=YES
*Static
1e-07, 1., 1e-08, 1.
** 
** LOADS
** 
** Name: Load-1   Type: Pressure
*Dsload
Surf-1, P, 1e-05
** 
** OUTPUT REQUESTS
** 
*Restart, write, frequency=0
** 
** FIELD OUTPUT: F-Output-1
** 
*Output, field, variable=PRESELECT
** 
** HISTORY OUTPUT: H-Output-1
** 
*Output, history, variable=PRESELECT
*End Step
